miqcp/testcases/nesta_case30_fsr__api.m
%%%%%%%%%%%%%%%%%%%%%%%%%%%%%%%%%%%%%%%%%%%%%%%%%%%%%%%%%%%%%%%%%%%%%%%%%%%
%%%%                                                                  %%%%%
%%%%      NICTA Energy System Test Case Archive (NESTA) - v0.7.0      %%%%%
%%%%            Optimal Power Flow - Active Power Increase            %%%%%
%%%%                         05 - June - 2017                         %%%%%
%%%%                                                                  %%%%%
%%%%%%%%%%%%%%%%%%%%%%%%%%%%%%%%%%%%%%%%%%%%%%%%%%%%%%%%%%%%%%%%%%%%%%%%%%%
function mpc = nesta_case30_fsr__api
mpc.version = '2';
mpc.baseMVA = 100.0;

%% area data
%	area	refbus
mpc.areas = [
	1	 8;
	2	 23;
	3	 26;
];

%% bus data
%	bus_i	type	Pd	Qd	Gs	Bs	area	Vm	Va	baseKV	zone	Vmax	Vmin
mpc.bus = [
	1	 3	 0.00	 0.00	 0.0	 0.0	 1	    1.03824	   -0.00000	 135.0	 1	    1.05000	    0.95000;
	2	 2	 23.71	 12.70	 0.0	 0.0	 1	    0.96162	   -0.18315	 135.0	 1	    1.10000	    0.95000;
	3	 1	 2.62	 1.20	 0.0	 0.0	 1	    0.99639	   -0.98472	 135.0	 1	    1.05000	    0.95000;
	4	 1	 8.30	 1.60	 0.0	 0.0	 1	    0.98763	   -1.09497	 135.0	 1	    1.05000	    0.95000;
	5	 1	 0.00	 0.00	 0.0	 0.19	 1	    0.96402	   -1.33166	 135.0	 1	    1.05000	    0.95000;
	6	 1	 0.00	 0.00	 0.0	 0.0	 1	    0.97667	   -1.36866	 135.0	 1	    1.05000	    0.95000;
	7	 1	 24.91	 10.90	 0.0	 0.0	 1	    0.96201	   -1.99463	 135.0	 1	    1.05000	    0.95000;
	8	 1	 32.78	 30.00	 0.0	 0.0	 1	    0.96455	   -1.82479	 135.0	 1	    1.05000	    0.95000;
	9	 1	 0.00	 0.00	 0.0	 0.0	 1	    0.98839	   -1.11188	 135.0	 1	    1.05000	    0.95000;
	10	 1	 6.34	 2.00	 0.0	 0.0	 3	    0.99459	   -0.97853	 135.0	 1	    1.05000	    0.95000;
	11	 1	 0.00	 0.00	 0.0	 0.0	 1	    0.98839	   -1.11188	 135.0	 1	    1.05000	    0.95000;
	12	 1	 12.24	 7.50	 0.0	 0.0	 2	    1.03644	    0.41447	 135.0	 1	    1.05000	    0.95000;
	13	 2	 0.00	 0.00	 0.0	 0.0	 2	    1.08847	    3.94536	 135.0	 1	    1.10000	    0.95000;
	14	 1	 6.77	 1.60	 0.0	 0.0	 2	    1.02667	   -0.28714	 135.0	 1	    1.05000	    0.95000;
	15	 1	 8.96	 2.50	 0.0	 0.0	 2	    1.02991	   -0.21798	 135.0	 1	    1.05000	    0.95000;
	16	 1	 3.82	 1.80	 0.0	 0.0	 2	    1.01077	   -0.47069	 135.0	 1	    1.05000	    0.95000;
	17	 1	 9.83	 5.80	 0.0	 0.0	 2	    0.99363	   -1.07225	 135.0	 1	    1.05000	    0.95000;
	18	 1	 3.50	 0.90	 0.0	 0.0	 2	    1.00416	   -1.28169	 135.0	 1	    1.05000	    0.95000;
	19	 1	 10.38	 3.40	 0.0	 0.0	 2	    0.99237	   -1.70530	 135.0	 1	    1.05000	    0.95000;
	20	 1	 2.40	 0.70	 0.0	 0.0	 2	    0.99204	   -1.58640	 135.0	 1	    1.05000	    0.95000;
	21	 1	 19.12	 11.20	 0.0	 0.0	 3	    1.00133	   -0.73759	 135.0	 1	    1.05000	    0.95000;
	22	 2	 0.00	 0.00	 0.0	 0.0	 3	    1.00837	   -0.48228	 135.0	 1	    1.10000	    0.95000;
	23	 2	 3.50	 1.60	 0.0	 0.0	 2	    1.05987	    0.66613	 135.0	 1	    1.10000	    0.95000;
	24	 1	 9.51	 6.70	 0.0	 0.04	 3	    1.02473	    0.23719	 135.0	 1	    1.05000	    0.95000;
	25	 1	 0.00	 0.00	 0.0	 0.0	 3	    1.04744	    2.16547	 135.0	 1	    1.05000	    0.95000;
	26	 1	 3.82	 2.30	 0.0	 0.0	 3	    1.02947	    1.70506	 135.0	 1	    1.05000	    0.95000;
	27	 2	 0.00	 0.00	 0.0	 0.0	 3	    1.07019	    3.62047	 135.0	 1	    1.10000	    0.95000;
	28	 1	 0.00	 0.00	 0.0	 0.0	 1	    0.98679	   -1.04899	 135.0	 1	    1.05000	    0.95000;
	29	 1	 2.62	 0.90	 0.0	 0.0	 3	    1.05000	    2.37819	 135.0	 1	    1.05000	    0.95000;
	30	 1	 11.58	 1.90	 0.0	 0.0	 3	    1.03823	    1.49130	 135.0	 1	    1.05000	    0.95000;
];

%% generator data
%	bus	Pg	Qg	Qmax	Qmin	Vg	mBase	status	Pmax	Pmin	Pc1	Pc2	Qc1min	Qc1max	Qc2min	Qc2max	ramp_agc	ramp_10	ramp_30	ramp_q	apf
mpc.gen = [
	1	 61.038	 140.287	 250.0	 -170.4	 1.03824	 100.0	 1	 231	 0.0	 0.0	 0.0	 0.0	 0.0	 0.0	 0.0	 0.0	 0.0	 0.0	 0.0	 0.0; % NG
	2	 0.0	 -134.017	 159.6	 -159.6	 0.96162	 100.0	 1	 81	 0.0	 0.0	 0.0	 0.0	 0.0	 0.0	 0.0	 0.0	 0.0	 0.0	 0.0	 0.0; % NG
	22	 26.324	 18.779	 80.0	 -30.0	 1.00837	 100.0	 1	 34	 0.0	 0.0	 0.0	 0.0	 0.0	 0.0	 0.0	 0.0	 0.0	 0.0	 0.0	 0.0; % NG
	27	 51.784	 30.487	 128.0	 -128.0	 1.07019	 100.0	 1	 256	 0.0	 0.0	 0.0	 0.0	 0.0	 0.0	 0.0	 0.0	 0.0	 0.0	 0.0	 0.0; % NG
	23	 24.353	 20.92	 50.0	 -25.0	 1.05987	 100.0	 1	 50	 0.0	 0.0	 0.0	 0.0	 0.0	 0.0	 0.0	 0.0	 0.0	 0.0	 0.0	 0.0; % PEL
	13	 49.627	 41.978	 84.0	 -84.0	 1.08847	 100.0	 1	 167	 0.0	 0.0	 0.0	 0.0	 0.0	 0.0	 0.0	 0.0	 0.0	 0.0	 0.0	 0.0; % NG
];

%% generator cost data
%	2	startup	shutdown	n	c(n-1)	...	c0
mpc.gencost = [
	2	 0.0	 0.0	 3	   0.000000	   0.921004	   0.000000; % NG
	2	 0.0	 0.0	 3	   0.000000	   1.279805	   0.000000; % NG
	2	 0.0	 0.0	 3	   0.000000	   1.202104	   0.000000; % NG
	2	 0.0	 0.0	 3	   0.000000	   1.195014	   0.000000; % NG
	2	 0.0	 0.0	 3	   0.000000	   6.892848	   0.000000; % PEL
	2	 0.0	 0.0	 3	   0.000000	   0.986613	   0.000000; % NG
];

%% branch data
%	fbus	tbus	r	x	b	rateA	rateB	rateC	ratio	angle	status	angmin	angmax
mpc.branch = [
	1	 2	 0.0192	 0.0575	 0.0264	 130.0	 130.0	 130.0	 0.0	 0.0	 1	 -30.0	 30.0;
	1	 3	 0.0452	 0.1852	 0.0204	 130.0	 130.0	 130.0	 0.0	 0.0	 1	 -30.0	 30.0;
	2	 4	 0.057	 0.1737	 0.0184	 65.0	 65.0	 65.0	 0.0	 0.0	 1	 -30.0	 30.0;
	3	 4	 0.0132	 0.0379	 0.0042	 130.0	 130.0	 130.0	 0.0	 0.0	 1	 -30.0	 30.0;
	2	 5	 0.0472	 0.1983	 0.0209	 130.0	 130.0	 130.0	 0.0	 0.0	 1	 -30.0	 30.0;
	2	 6	 0.0581	 0.1763	 0.0187	 65.0	 65.0	 65.0	 0.0	 0.0	 1	 -30.0	 30.0;
	4	 6	 0.0119	 0.0414	 0.0045	 90.0	 90.0	 90.0	 0.0	 0.0	 1	 -30.0	 30.0;
	5	 7	 0.046	 0.116	 0.0102	 70.0	 70.0	 70.0	 0.0	 0.0	 1	 -30.0	 30.0;
	6	 7	 0.0267	 0.082	 0.0085	 130.0	 130.0	 130.0	 0.0	 0.0	 1	 -30.0	 30.0;
	6	 8	 0.012	 0.042	 0.0045	 32.0	 32.0	 32.0	 0.0	 0.0	 1	 -30.0	 30.0;
	6	 9	 0.0	 0.208	 0.0	 65.0	 65.0	 65.0	 0.0	 0.0	 1	 -30.0	 30.0;
	6	 10	 0.0	 0.556	 0.0	 32.0	 32.0	 32.0	 0.0	 0.0	 1	 -30.0	 30.0;
	9	 11	 0.0	 0.208	 0.0	 65.0	 65.0	 65.0	 0.0	 0.0	 1	 -30.0	 30.0;
	9	 10	 0.0	 0.11	 0.0	 65.0	 65.0	 65.0	 0.0	 0.0	 1	 -30.0	 30.0;
	4	 12	 0.0	 0.256	 0.0	 65.0	 65.0	 65.0	 0.0	 0.0	 1	 -30.0	 30.0;
	12	 13	 0.0	 0.14	 0.0	 65.0	 65.0	 65.0	 0.0	 0.0	 1	 -30.0	 30.0;
	12	 14	 0.1231	 0.2559	 0.0	 32.0	 32.0	 32.0	 0.0	 0.0	 1	 -30.0	 30.0;
	12	 15	 0.0662	 0.1304	 0.0	 32.0	 32.0	 32.0	 0.0	 0.0	 1	 -30.0	 30.0;
	12	 16	 0.0945	 0.1987	 0.0	 32.0	 32.0	 32.0	 0.0	 0.0	 1	 -30.0	 30.0;
	14	 15	 0.221	 0.1997	 0.0	 16.0	 16.0	 16.0	 0.0	 0.0	 1	 -30.0	 30.0;
	16	 17	 0.0824	 0.1932	 0.0	 16.0	 16.0	 16.0	 0.0	 0.0	 1	 -30.0	 30.0;
	15	 18	 0.107	 0.2185	 0.0	 16.0	 16.0	 16.0	 0.0	 0.0	 1	 -30.0	 30.0;
	18	 19	 0.0639	 0.1292	 0.0	 16.0	 16.0	 16.0	 0.0	 0.0	 1	 -30.0	 30.0;
	19	 20	 0.034	 0.068	 0.0	 32.0	 32.0	 32.0	 0.0	 0.0	 1	 -30.0	 30.0;
	10	 20	 0.0936	 0.209	 0.0	 32.0	 32.0	 32.0	 0.0	 0.0	 1	 -30.0	 30.0;
	10	 17	 0.0324	 0.0845	 0.0	 32.0	 32.0	 32.0	 0.0	 0.0	 1	 -30.0	 30.0;
	10	 21	 0.0348	 0.0749	 0.0	 32.0	 32.0	 32.0	 0.0	 0.0	 1	 -30.0	 30.0;
	10	 22	 0.0727	 0.1499	 0.0	 32.0	 32.0	 32.0	 0.0	 0.0	 1	 -30.0	 30.0;
	21	 22	 0.0116	 0.0236	 0.0	 32.0	 32.0	 32.0	 0.0	 0.0	 1	 -30.0	 30.0;
	15	 23	 0.1	 0.202	 0.0	 16.0	 16.0	 16.0	 0.0	 0.0	 1	 -30.0	 30.0;
	22	 24	 0.115	 0.179	 0.0	 16.0	 16.0	 16.0	 0.0	 0.0	 1	 -30.0	 30.0;
	23	 24	 0.132	 0.27	 0.0	 16.0	 16.0	 16.0	 0.0	 0.0	 1	 -30.0	 30.0;
	24	 25	 0.1885	 0.3292	 0.0	 16.0	 16.0	 16.0	 0.0	 0.0	 1	 -30.0	 30.0;
	25	 26	 0.2544	 0.38	 0.0	 16.0	 16.0	 16.0	 0.0	 0.0	 1	 -30.0	 30.0;
	25	 27	 0.1093	 0.2087	 0.0	 16.0	 16.0	 16.0	 0.0	 0.0	 1	 -30.0	 30.0;
	28	 27	 0.0	 0.396	 0.0	 65.0	 65.0	 65.0	 0.0	 0.0	 1	 -30.0	 30.0;
	27	 29	 0.2198	 0.4153	 0.0	 16.0	 16.0	 16.0	 0.0	 0.0	 1	 -30.0	 30.0;
	27	 30	 0.3202	 0.6027	 0.0	 16.0	 16.0	 16.0	 0.0	 0.0	 1	 -30.0	 30.0;
	29	 30	 0.2399	 0.4533	 0.0	 16.0	 16.0	 16.0	 0.0	 0.0	 1	 -30.0	 30.0;
	8	 28	 0.0636	 0.2	 0.0214	 32.0	 32.0	 32.0	 0.0	 0.0	 1	 -30.0	 30.0;
	6	 28	 0.0169	 0.0599	 0.0065	 32.0	 32.0	 32.0	 0.0	 0.0	 1	 -30.0	 30.0;
];

% INFO    : === Translation Options ===
% INFO    : Load Model:                  from file ./nesta_case30_fsr.m.api.sol
% INFO    : Gen Active Capacity Model:   stat
% INFO    : Gen Reactive Capacity Model: al50ag
% INFO    : Gen Active Cost Model:       stat
% INFO    : 
% INFO    : === Load Replacement Notes ===
% INFO    : Bus 1	: Pd=0.0, Qd=0.0 -> Pd=0.00, Qd=0.00
% INFO    : Bus 2	: Pd=21.7, Qd=12.7 -> Pd=23.71, Qd=12.70
% INFO    : Bus 3	: Pd=2.4, Qd=1.2 -> Pd=2.62, Qd=1.20
% INFO    : Bus 4	: Pd=7.6, Qd=1.6 -> Pd=8.30, Qd=1.60
% INFO    : Bus 5	: Pd=0.0, Qd=0.0 -> Pd=0.00, Qd=0.00
% INFO    : Bus 6	: Pd=0.0, Qd=0.0 -> Pd=0.00, Qd=0.00
% INFO    : Bus 7	: Pd=22.8, Qd=10.9 -> Pd=24.91, Qd=10.90
% INFO    : Bus 8	: Pd=30.0, Qd=30.0 -> Pd=32.78, Qd=30.00
% INFO    : Bus 9	: Pd=0.0, Qd=0.0 -> Pd=0.00, Qd=0.00
% INFO    : Bus 10	: Pd=5.8, Qd=2.0 -> Pd=6.34, Qd=2.00
% INFO    : Bus 11	: Pd=0.0, Qd=0.0 -> Pd=0.00, Qd=0.00
% INFO    : Bus 12	: Pd=11.2, Qd=7.5 -> Pd=12.24, Qd=7.50
% INFO    : Bus 13	: Pd=0.0, Qd=0.0 -> Pd=0.00, Qd=0.00
% INFO    : Bus 14	: Pd=6.2, Qd=1.6 -> Pd=6.77, Qd=1.60
% INFO    : Bus 15	: Pd=8.2, Qd=2.5 -> Pd=8.96, Qd=2.50
% INFO    : Bus 16	: Pd=3.5, Qd=1.8 -> Pd=3.82, Qd=1.80
% INFO    : Bus 17	: Pd=9.0, Qd=5.8 -> Pd=9.83, Qd=5.80
% INFO    : Bus 18	: Pd=3.2, Qd=0.9 -> Pd=3.50, Qd=0.90
% INFO    : Bus 19	: Pd=9.5, Qd=3.4 -> Pd=10.38, Qd=3.40
% INFO    : Bus 20	: Pd=2.2, Qd=0.7 -> Pd=2.40, Qd=0.70
% INFO    : Bus 21	: Pd=17.5, Qd=11.2 -> Pd=19.12, Qd=11.20
% INFO    : Bus 22	: Pd=0.0, Qd=0.0 -> Pd=0.00, Qd=0.00
% INFO    : Bus 23	: Pd=3.2, Qd=1.6 -> Pd=3.50, Qd=1.60
% INFO    : Bus 24	: Pd=8.7, Qd=6.7 -> Pd=9.51, Qd=6.70
% INFO    : Bus 25	: Pd=0.0, Qd=0.0 -> Pd=0.00, Qd=0.00
% INFO    : Bus 26	: Pd=3.5, Qd=2.3 -> Pd=3.82, Qd=2.30
% INFO    : Bus 27	: Pd=0.0, Qd=0.0 -> Pd=0.00, Qd=0.00
% INFO    : Bus 28	: Pd=0.0, Qd=0.0 -> Pd=0.00, Qd=0.00
% INFO    : Bus 29	: Pd=2.4, Qd=0.9 -> Pd=2.62, Qd=0.90
% INFO    : Bus 30	: Pd=10.6, Qd=1.9 -> Pd=11.58, Qd=1.90
% INFO    : 
% INFO    : === Generator Setpoint Replacement Notes ===
% INFO    : Gen at bus 1	: Pg=42.329, Qg=-3.651 -> Pg=59.0, Qg=142.0
% INFO    : Gen at bus 2	: Pg=56.274, Qg=7.266 -> Pg=0.0, Qg=-133.0
% INFO    : Gen at bus 22	: Pg=22.797, Qg=31.289 -> Pg=24.0, Qg=25.0
% INFO    : Gen at bus 27	: Pg=37.64, Qg=27.196 -> Pg=53.0, Qg=31.0
% INFO    : Gen at bus 23	: Pg=16.336, Qg=6.969 -> Pg=28.0, Qg=14.0
% INFO    : Gen at bus 13	: Pg=16.492, Qg=33.295 -> Pg=51.0, Qg=41.0
% INFO    : 
% INFO    : === Generator Reactive Capacity Atleast Setpoint Value Notes ===
% INFO    : Gen at bus 1	: Qg 142.0, Qmin -20.0, Qmax 250.0 -> Qmin -170.4, Qmax 250.0
% INFO    : Gen at bus 2	: Qg -133.0, Qmin -20.0, Qmax 100.0 -> Qmin -159.6, Qmax 159.6
% INFO    : Gen at bus 22	: Qg 25.0, Qmin -15.0, Qmax 80.0 -> Qmin -30.0, Qmax 80.0
% INFO    : Gen at bus 27	: Qg 31.0, Qmin -15.0, Qmax 60.0 -> Qmin -37.2, Qmax 60.0
% INFO    : Gen at bus 23	: Qg 14.0, Qmin -10.0, Qmax 50.0 -> Qmin -16.8, Qmax 50.0
% INFO    : Gen at bus 13	: Qg 41.0, Qmin -15.0, Qmax 60.0 -> Qmin -49.2, Qmax 60.0
% INFO    : 
% INFO    : === Generator Classification Notes ===
% INFO    : PEL    1   -    13.02
% INFO    : NG     5   -    86.98
% INFO    : 
% INFO    : === Generator Active Capacity Stat Model Notes ===
% INFO    : Gen at bus 1 - NG	: Pg=59.0, Pmax=80.0 -> Pmax=231   samples: 1
% INFO    : Gen at bus 2 - NG	: Pg=0.0, Pmax=80.0 -> Pmax=81   samples: 1
% INFO    : Gen at bus 22 - NG	: Pg=24.0, Pmax=50.0 -> Pmax=34   samples: 4
% INFO    : Gen at bus 27 - NG	: Pg=53.0, Pmax=55.0 -> Pmax=256   samples: 2
% INFO    : Gen at bus 23 - PEL	: Pg=28.0, Pmax=30.0 -> Pmax=50   samples: 1
% INFO    : Gen at bus 13 - NG	: Pg=51.0, Pmax=40.0 -> Pmax=167   samples: 1
% INFO    : 
% INFO    : === Generator Active Capacity LB Model Notes ===
% INFO    : 
% INFO    : === Generator Reactive Capacity Atleast Max 50 Percent Active Model Notes ===
% INFO    : Gen at bus 27 - NG	: Pmax 256.0, Qmin -37.2, Qmax 60.0 -> Qmin -128.0, Qmax 128.0
% INFO    : Gen at bus 23 - PEL	: Pmax 50.0, Qmin -16.8, Qmax 50.0 -> Qmin -25.0, Qmax 50.0
% INFO    : Gen at bus 13 - NG	: Pmax 167.0, Qmin -49.2, Qmax 60.0 -> Qmin -84.0, Qmax 84.0
% INFO    : 
% INFO    : === Generator Active Cost Stat Model Notes ===
% INFO    : Updated Generator Cost: NG - 0.0 2.0 0.02 -> 0 0.921003551301 0
% INFO    : Updated Generator Cost: NG - 0.0 1.75 0.0175 -> 0 1.27980476567 0
% INFO    : Updated Generator Cost: NG - 0.0 1.0 0.0625 -> 0 1.20210423362 0
% INFO    : Updated Generator Cost: NG - 0.0 3.25 0.00834 -> 0 1.1950136909 0
% INFO    : Updated Generator Cost: PEL - 0.0 3.0 0.025 -> 0 6.89284848669 0
% INFO    : Updated Generator Cost: NG - 0.0 3.0 0.025 -> 0 0.986613327555 0
% INFO    : 
% INFO    : === Voltage Setpoint Replacement Notes ===
% INFO    : Bus 1	: V=1.00335, theta=-0.0 -> V=1.03824, theta=-0.0
% INFO    : Bus 2	: V=0.99966, theta=-0.70884 -> V=0.96162, theta=-0.18315
% INFO    : Bus 3	: V=0.99603, theta=-2.24263 -> V=0.99639, theta=-0.98472
% INFO    : Bus 4	: V=0.9942, theta=-2.65641 -> V=0.98763, theta=-1.09497
% INFO    : Bus 5	: V=0.99024, theta=-2.37332 -> V=0.96402, theta=-1.33166
% INFO    : Bus 6	: V=0.98893, theta=-3.03237 -> V=0.97667, theta=-1.36866
% INFO    : Bus 7	: V=0.98036, theta=-3.30889 -> V=0.96201, theta=-1.99463
% INFO    : Bus 8	: V=0.97689, theta=-3.471 -> V=0.96455, theta=-1.82479
% INFO    : Bus 9	: V=1.00245, theta=-3.93599 -> V=0.98839, theta=-1.11188
% INFO    : Bus 10	: V=1.0097, theta=-4.40402 -> V=0.99459, theta=-0.97853
% INFO    : Bus 11	: V=1.00245, theta=-3.93599 -> V=0.98839, theta=-1.11188
% INFO    : Bus 12	: V=1.02739, theta=-4.2815 -> V=1.03644, theta=0.41447
% INFO    : Bus 13	: V=1.0707, theta=-3.07881 -> V=1.08847, theta=3.94536
% INFO    : Bus 14	: V=1.01651, theta=-4.81366 -> V=1.02667, theta=-0.28714
% INFO    : Bus 15	: V=1.01885, theta=-4.604 -> V=1.02991, theta=-0.21798
% INFO    : Bus 16	: V=1.01265, theta=-4.62277 -> V=1.01077, theta=-0.47069
% INFO    : Bus 17	: V=1.00513, theta=-4.69101 -> V=0.99363, theta=-1.07225
% INFO    : Bus 18	: V=1.00315, theta=-5.26224 -> V=1.00416, theta=-1.28169
% INFO    : Bus 19	: V=0.99707, theta=-5.45474 -> V=0.99237, theta=-1.7053
% INFO    : Bus 20	: V=0.99942, theta=-5.25088 -> V=0.99204, theta=-1.5864
% INFO    : Bus 21	: V=1.01771, theta=-4.42706 -> V=1.00133, theta=-0.73759
% INFO    : Bus 22	: V=1.02486, theta=-4.28191 -> V=1.00837, theta=-0.48228
% INFO    : Bus 23	: V=1.03423, theta=-3.57128 -> V=1.05987, theta=0.66613
% INFO    : Bus 24	: V=1.02406, theta=-3.73092 -> V=1.02473, theta=0.23719
% INFO    : Bus 25	: V=1.04664, theta=-2.06649 -> V=1.04744, theta=2.16547
% INFO    : Bus 26	: V=1.02948, theta=-2.46258 -> V=1.02947, theta=1.70506
% INFO    : Bus 27	: V=1.06891, theta=-0.8018 -> V=1.07019, theta=3.62047
% INFO    : Bus 28	: V=0.99657, theta=-3.00866 -> V=0.98679, theta=-1.04899
% INFO    : Bus 29	: V=1.05, theta=-1.92701 -> V=1.05, theta=2.37819
% INFO    : Bus 30	: V=1.03906, theta=-2.73245 -> V=1.03823, theta=1.4913
% INFO    : 
% INFO    : === Generator Setpoint Replacement Notes ===
% INFO    : Gen at bus 1	: Pg=59.0, Qg=142.0 -> Pg=61.038, Qg=140.287
% INFO    : Gen at bus 1	: Vg=1.00335 -> Vg=1.03824
% INFO    : Gen at bus 2	: Pg=0.0, Qg=-133.0 -> Pg=0.0, Qg=-134.017
% INFO    : Gen at bus 2	: Vg=0.99966 -> Vg=0.96162
% INFO    : Gen at bus 22	: Pg=24.0, Qg=25.0 -> Pg=26.324, Qg=18.779
% INFO    : Gen at bus 22	: Vg=1.02486 -> Vg=1.00837
% INFO    : Gen at bus 27	: Pg=53.0, Qg=31.0 -> Pg=51.784, Qg=30.487
% INFO    : Gen at bus 27	: Vg=1.06891 -> Vg=1.07019
% INFO    : Gen at bus 23	: Pg=28.0, Qg=14.0 -> Pg=24.353, Qg=20.92
% INFO    : Gen at bus 23	: Vg=1.03423 -> Vg=1.05987
% INFO    : Gen at bus 13	: Pg=51.0, Qg=41.0 -> Pg=49.627, Qg=41.978
% INFO    : Gen at bus 13	: Vg=1.0707 -> Vg=1.08847
% INFO    : 
% INFO    : === Writing Matpower Case File Notes ===
